
##########################################################################
#               Crystallographic Information Format file
#               Produced by PyCifRW module
#
#  This is a CIF file.  CIF has been adopted by the International
#  Union of Crystallography as the standard for data archiving and
#  transmission.
#
#  For information on this file format, follow the CIF links at
#  http://www.iucr.org
##########################################################################

data_0

loop_
  _atom_site_fract_x
         0.11111318141447266           
         0.22215993018422328           
         0.0       
         0.0       
         0.22215993018422328           
         0.11111318141447266           
         0.11111318141447266           
         0.22215993018422328           
         0.7777583329883017  
         0.8889126572222404  
         0.666645151573829   
         0.666645151573829   
         0.7777583329883017  
         0.8889126572222404  
         0.33337636351900857           
         0.33337636351900857           
         0.5555362937032318  
         0.44448954493348125           
         0.44448954493348125           
         0.5555362937032318  
         0.8889126572222404  
         0.7777583329883017  
         0.44448954493348125           
         0.5555362937032318  
         0.7777626565321771  
         0.8888715144027742  
         0.7777626565321771  
         0.8888715144027742  
         0.11111750495834816           
         0.11111750495834816           
         0.5556027263479539  
         0.4443862930131686  
         0.4443862930131686  
         0.5556027263479539  
         0.8888715144027742  
         0.7777626565321771  
         0.2222263628289453  
         0.11111750495834816           
         0.2222263628289453  
         0.6666494751177044  
         0.6666494751177044  
         4.323543875482368e-06         
         4.323543875482368e-06         
         0.3332731115986959  
         0.3332731115986959  
         0.2222263628289453  
         0.4443862930131686  
         0.5556027263479539 
loop_
  _atom_site_fract_y
         0.333339544243418   
         0.16657660847043917           
         0.0       
         0.0       
         0.16657660847043917           
         0.333339544243418   
         0.333339544243418   
         0.16657660847043917           
         0.333339544243418   
         0.16657660847043917           
         0.0       
         0.0       
         0.333339544243418   
         0.16657660847043917           
         0.0       
         0.0       
         0.16657660847043917           
         0.333339544243418   
         0.333339544243418   
         0.16657660847043917           
         0.16657660847043917           
         0.333339544243418   
         0.333339544243418   
         0.16657660847043917           
         0.8332556969572752  
         0.666679088486836   
         0.8332556969572752  
         0.666679088486836   
         0.8332556969572752  
         0.8332556969572752  
         0.666679088486836   
         0.8332556969572752  
         0.8332556969572752  
         0.666679088486836   
         0.666679088486836   
         0.8332556969572752  
         0.666679088486836   
         0.8332556969572752  
         0.666679088486836   
         0.49991615271385714           
         0.49991615271385714           
         0.49991615271385714           
         0.49991615271385714           
         0.49991615271385714           
         0.49991615271385714           
         0.666679088486836   
         0.8332556969572752  
         0.666679088486836 
loop_
  _atom_site_fract_z
         0.750038997623439   
         0.25004358557913764           
         0.0       
         0.4999954120443013  
         0.9124618052688083  
         0.41245721731310964           
         0.08753819473119168           
         0.5875336067754929  
         0.750038997623439   
         0.25004358557913764           
         0.0       
         0.4999954120443013  
         0.08753819473119168           
         0.5875336067754929  
         0.0       
         0.4999954120443013  
         0.9124618052688083  
         0.41245721731310964           
         0.08753819473119168           
         0.5875336067754929  
         0.9124618052688083  
         0.41245721731310964           
         0.750038997623439   
         0.25004358557913764           
         0.750038997623439   
         0.25004358557913764           
         0.08753819473119168           
         0.5875336067754929  
         0.750038997623439   
         0.08753819473119168           
         0.9124618052688083  
         0.41245721731310964           
         0.08753819473119168           
         0.5875336067754929  
         0.9124618052688083  
         0.41245721731310964           
         0.9124618052688083  
         0.41245721731310964           
         0.5875336067754929  
         0.0       
         0.4999954120443013  
         0.0       
         0.4999954120443013  
         0.0       
         0.4999954120443013  
         0.25004358557913764           
         0.750038997623439   
         0.25004358557913764 
loop_
  _atom_site_label
         Na1       
         Na2       
         Mn1       
         Mn2       
         O1        
         O2        
         O3        
         O4        
         Na3       
         Na4       
         Mn3       
         Ni1       
         O5        
         O6        
         Ti1       
         Ni2       
         O7        
         O8        
         O9        
         O10       
         O11       
         O12       
         Na5       
         Na6       
         Na7       
         Na8       
         O13       
         O14       
         Na9       
         O15       
         O16       
         O17       
         O18       
         O19       
         O20       
         O21       
         O22       
         O23       
         O24       
         Ti2       
         Mn4       
         Ni3       
         Ti3       
         Ni4       
         Ti4       
         Na10      
         Na11      
         Na12 
loop_
  _atom_site_type_symbol
         Na        
         Na        
         Mn        
         Mn        
         O         
         O         
         O         
         O         
         Na        
         Na        
         Mn        
         Ni        
         O         
         O         
         Ti        
         Ni        
         O         
         O         
         O         
         O         
         O         
         O         
         Na        
         Na        
         Na        
         Na        
         O         
         O         
         Na        
         O         
         O         
         O         
         O         
         O         
         O         
         O         
         O         
         O         
         O         
         Ti        
         Mn        
         Ni        
         Ti        
         Ni        
         Ti        
         Na        
         Na        
         Na 
_cell_angle_alpha                       90.0
_cell_angle_beta                        90.0
_cell_angle_gamma                       120.0001508506647
_cell_length_a                          9.2958
_cell_length_b                          6.197171739592183
_cell_length_c                          10.8981
loop_
  _symmetry_equiv_pos_as_xyz
         'x, y, z' 
_symmetry_int_tables_number             1
_symmetry_space_group_name_H-M          'P 1'